14
3498.3457 c1ccccn1.O
C -0.090043 1.143343 0.024183
C -1.478095 1.195912 -0.007236
C -2.187052 0.001794 -0.022862
C -1.481197 -1.194152 -0.007395
C -0.092998 -1.145161 0.024043
N 0.594662 -0.001806 0.041046
H -3.26839 0.003206 -0.047908
H 0.500145 2.051599 0.033773
H -1.985358 2.150191 -0.020464
H -1.990912 -2.147122 -0.020749
H 0.494786 -2.054977 0.033518
O 3.468938 0.00035 -0.132388
H 2.495603 -0.001533 -0.033896
H 3.816298 -0.001938 0.763117

