14
3635.0847 x 
C -1.77682 0.667759 0.003373
C -1.843778 -0.887601 0.090209
C -0.300213 -0.976147 -0.10096
C -0.256054 0.546921 -0.042234
H -2.184175 1.094205 -0.914713
H -2.162217 1.237604 0.848722
H -2.433458 -1.36582 -0.687187
H -2.179026 -1.248951 1.059315
H 0.027287 -1.358468 -1.068656
H 0.287538 -1.475191 0.668183
O 0.638545 1.350373 0.002703
O 2.825531 -0.490784 0.036598
H 2.263028 0.301194 0.022524
H 3.729606 -0.166875 0.055074

