24
3742.5925 c1ccc2c(c1)c1c(cccc1)o2.O
C -2.549875 -2.135784 0.014738
C -3.172264 -0.882178 -0.01773
C -2.432023 0.295872 -0.038228
C -1.058362 0.153682 -0.02459
C -0.403082 -1.083469 0.006998
C -1.166174 -2.249731 0.027247
H -3.159526 -3.02862 0.029558
H -4.251982 -0.825733 -0.027986
H -2.891052 1.273589 -0.063549
H -0.691362 -3.220968 0.051585
C 1.098509 0.620296 -0.022854
C 2.294764 1.30997 -0.034239
C 3.455846 0.543179 -0.011231
C 3.403316 -0.854737 0.021094
C 2.187659 -1.526252 0.030751
C 1.012263 -0.778091 0.008394
H 2.321595 2.389545 -0.062451
H 4.41649 1.03923 -0.019718
H 4.325768 -1.418359 0.037807
H 2.153737 -2.606824 0.05435
O -0.152619 1.197497 -0.041529
O -1.787663 3.641776 -0.022429
H -1.660348 4.205423 0.745392
H -1.064524 3.001996 0.004571

