15
3791.2853 X
C    -0.802273    0.602404    0.000240
C    -0.530319    -0.753520    0.000341
C    0.792222    -1.159483    0.000175
C    1.820898    -0.226444    -0.000137
C    1.543346    1.129001    -0.000238
C    0.221748    1.537944    -0.000033
H    -1.335924    -1.473577    0.000591
H    2.343145    1.853784    -0.000455
F    3.094411    -0.645986    -0.000293
F    1.090366    -2.466382    0.000295
F    -2.080291    1.033994    0.000485
F    -0.074595    2.846286    -0.000102
O    -3.660502    -1.474215    -0.000619
H    -4.576463    -1.765437    -0.000477
H    -3.689487    -0.511665    -0.000259
