20
3710.7747 c1ccc(cc1)C(=O)C(F)(F)F.O
C -3.173158 -1.303354 -0.00034
C -2.059116 -2.135651 -0.006851
C -0.783736 -1.591543 -0.0056
C -0.613324 -0.199968 0.001956
C -1.743178 0.632246 0.0085
C -3.012303 0.079853 0.007415
H -4.166485 -1.731651 -0.001295
H -2.183106 -3.209519 -0.012865
H 0.06738 -2.253604 -0.010741
H -1.622195 1.704757 0.014523
H -3.877387 0.728117 0.012492
C 0.715078 0.440796 0.003037
C 1.985434 -0.471815 0.000579
O 0.908923 1.63527 0.005827
F 2.004364 -1.271997 1.087789
F 3.099533 0.252471 0.004756
F 2.00646 -1.262668 -1.09345
O -0.850797 3.925381 -0.012699
H -0.105159 3.308347 -0.007324
H -0.465444 4.804706 0.016156

