17
3698.5972 c1cccc(c1O)C#N.O
C -1.528983 -1.403194 0.011662
C -2.69151 -0.65697 -0.008738
C -2.649752 0.739368 -0.024765
C -1.425452 1.374409 -0.017245
C -0.233112 0.631267 0.005632
C -0.275779 -0.780277 0.017279
H -1.553939 -2.483347 0.021324
H -3.645829 -1.166187 -0.013918
H -3.56238 1.316831 -0.042305
H -1.36306 2.45339 -0.027235
O 0.796427 -1.581638 0.039289
H 1.674035 -1.140154 -0.010325
C 1.013182 1.313643 0.025419
N 2.040556 1.839013 0.046841
O 3.391669 -0.713676 -0.136312
H 4.006965 -1.052412 0.52044
H 3.403993 0.251819 -0.055151

