17
3597.3734 c1ccc(cc1)N.O
C 2.339919 -0.056532 -0.581657
C 1.684877 -1.226344 -0.211983
C 0.431717 -1.177769 0.383849
C -0.186911 0.051352 0.623177
C 0.469258 1.225515 0.247178
C 1.722163 1.16749 -0.348168
H 3.315758 -0.098151 -1.044327
H 2.150847 -2.186762 -0.387303
H -0.073184 -2.094528 0.661828
H -0.006466 2.183193 0.418208
H 2.217332 2.08682 -0.630791
N -1.4859 0.102799 1.165291
H -1.727453 -0.689967 1.741456
H -1.70307 0.965966 1.641202
O -3.371335 -0.078606 -1.118748
H -2.822845 -0.156447 -1.903903
H -2.745081 -0.003136 -0.377803

