20
3608.3728 c1cc(ccc1)C(=O)C.O
C 2.689085 1.036607 -0.002452
C 1.307111 1.175769 -4.7e-05
C 0.481754 0.047438 0.001798
C 1.068063 -1.223139 0.001023
C 2.446473 -1.361101 -0.001398
C 3.260328 -0.230706 -0.003104
H 3.318901 1.915666 -0.003849
H 0.879202 2.167497 0.000299
H 0.422569 -2.089548 0.002254
H 2.890203 -2.347347 -0.002023
H 4.336679 -0.338516 -0.004987
C -1.007983 0.149443 0.004321
O -1.690902 -0.863415 0.006061
C -1.651306 1.515574 0.00451
H -1.3347 2.08379 0.88082
H -1.341578 2.080545 -0.876364
H -2.732248 1.415256 0.009035
O -4.481683 -0.352931 -0.017075
H -3.569943 -0.69247 -0.005757
H -5.049555 -1.123418 0.06077

