15
3555.4313 N#Cc1ccncc1.O
N -3.961443 -0.006607 -0.061
C -2.810487 -0.003811 -0.033908
C -1.380214 -0.000368 0.001098
C -0.668231 -1.200547 0.018608
C 0.717267 -1.140416 0.053632
N 1.398399 0.006187 0.072398
C 0.711884 1.149562 0.052667
C -0.673871 1.203151 0.017604
H -1.181439 -2.150452 0.004174
H 1.306768 -2.048394 0.0646
H 1.296965 2.060395 0.062931
H -1.191594 2.150595 0.002377
O 4.289542 -0.006979 -0.189766
H 3.326308 0.001307 -0.037396
H 4.689881 -0.000109 0.683443

