19
3603.7693 C[C@H](O)C(=O)OCC#N.O
C -2.363985 0.32739 -1.144477
C -1.943561 -0.09665 0.267238
O -1.682396 0.996451 1.111982
C -0.770786 -1.068698 0.152939
O -0.851404 -2.25809 0.001944
O 0.420671 -0.411839 0.181333
C 1.58293 -1.230376 0.016442
C 2.706778 -0.303705 -0.087775
N 3.555983 0.465764 -0.170375
H -2.596111 -0.539785 -1.762784
H -1.567003 0.901707 -1.617946
H -3.248268 0.958316 -1.071152
H -2.745921 -0.669016 0.732512
H -1.018067 1.576961 0.701377
H 1.504969 -1.843457 -0.88253
H 1.711637 -1.896305 0.87096
O 0.365119 2.54809 -0.16619
H 0.606211 3.453268 0.051878
H 1.176506 2.033303 -0.088444

