15
3671.8528 CCC(=O)C=O.O
C 0.322676 1.807845 -0.474072
C 0.054064 0.822746 0.68212
C -0.366009 -0.503703 0.129271
O 0.385988 -1.419105 -0.141113
C -1.856614 -0.727448 -0.176624
O -2.709628 0.083844 0.061367
H 0.592623 2.780664 -0.066366
H -0.561589 1.936675 -1.098177
H 1.14974 1.453558 -1.086965
H -0.742661 1.21004 1.317065
H 0.962615 0.682802 1.264644
H -2.06415 -1.712138 -0.636049
O 3.030617 -0.29196 0.017526
H 2.272117 -0.891475 -0.055962
H 3.810796 -0.839 -0.104608

