22
3774.1662 O=C1CCCCC(=O)C1.O
O 2.343572 -0.408038 -0.410143
C 1.16743 -0.636795 -0.579617
C 0.497036 -1.810508 0.108989
C -1.0331 -1.859256 0.124738
C -1.705612 -0.63817 0.769297
C -1.871864 0.582291 -0.156737
C -0.575108 1.166987 -0.664585
O -0.242079 2.306768 -0.430338
C 0.336251 0.259591 -1.493935
H 0.887015 -1.821921 1.12775
H 0.897577 -2.705368 -0.377704
H -1.320027 -2.75123 0.683898
H -1.422449 -2.007775 -0.886864
H -1.143572 -0.338002 1.655154
H -2.705253 -0.919252 1.103663
H -2.407617 1.377206 0.359248
H -2.464092 0.285392 -1.029338
H 1.016205 0.882465 -2.066679
H -0.270273 -0.361053 -2.155981
O 1.062498 1.020637 2.049579
H 0.824456 1.845434 1.611319
H 1.905907 0.774328 1.653842

