14
3601.7266 Fc1ccccn1.O
F 0.054509 2.185505 -0.00192
C -0.377678 0.914795 -0.001951
C -1.746229 0.680505 0.007403
C -2.149417 -0.644638 0.00676
C -1.18667 -1.651547 -0.003149
C 0.149066 -1.286673 -0.012094
N 0.550183 -0.007232 -0.011435
H -2.441713 1.505635 0.01483
H -3.202509 -0.889853 0.013888
H -1.466138 -2.694652 -0.003809
H 0.940113 -2.025187 -0.019987
O 3.395263 -0.471413 0.029057
H 2.513594 -0.060223 0.007935
H 4.018255 0.242006 -0.129807

