14
3628.2201 CC(=O)/C=N/O.O
C -1.031354 1.56191 -0.001267
C -0.250976 0.272953 0.000251
O -0.776904 -0.82165 0.0025
C 1.235048 0.440523 -0.000438
N 1.980048 -0.590418 -9.7e-05
O 3.320004 -0.259844 -0.000658
H -2.099323 1.366771 -0.007857
H -0.766008 2.152886 0.87916
H -0.755586 2.158587 -0.874509
H 1.657612 1.443269 -0.001188
H 3.762539 -1.116594 -0.000271
O -3.61282 -0.57829 0.00485
H -2.683452 -0.86299 0.004324
H -4.134667 -1.383044 -0.043799

