16
3601.6631 [NH][C]1NCCN1.O
N 1.761696 1.49904 -0.122174
C 1.019014 0.475699 0.025854
N 1.090902 -0.653441 -0.76283
C -0.059083 -1.522201 -0.540606
C -0.409927 -1.166009 0.908311
N -0.027247 0.254083 0.950217
H 1.561167 2.21819 0.564411
H 1.480817 -0.536811 -1.682597
H 0.203102 -2.572149 -0.656775
H -0.894904 -1.280736 -1.203458
H -1.468252 -1.293903 1.12376
H 0.180638 -1.763293 1.608707
H 0.122918 0.657922 1.861792
O -2.503963 0.927606 -0.445561
H -2.569694 1.766832 -0.908738
H -1.661573 0.960388 0.039547

