16
3673.6421 CC#CC#CC#CC=O.O
C -5.662597 0.402513 -8.8e-05
C -4.238945 0.141402 -0.000356
C -3.047988 -0.072984 -0.000158
C -1.719464 -0.309858 -3.3e-05
C -0.519903 -0.520218 6.7e-05
C 0.804783 -0.753594 0.000154
C 2.003945 -0.949345 0.000191
C 3.402674 -1.225563 0.000226
O 4.271412 -0.371955 -0.000592
H -5.933099 1.069575 -0.821021
H -5.966693 0.877975 0.934616
H -6.230444 -0.523118 -0.111417
H 3.667942 -2.295407 0.001037
O 3.301539 2.384988 0.000222
H 4.045748 2.992579 7.7e-05
H 3.69791 1.500017 -0.000342

