13
3741.0162 c1cc[nH]c1.O
C 0.534553 0.070504 1.233862
C 0.760604 1.148076 0.33254
C 0.889744 0.610103 -0.925117
N 0.756261 -0.748935 -0.81355
C 0.534595 -1.090017 0.494488
H 0.398928 0.136768 2.299615
H 0.82552 2.193496 0.580133
H 1.063735 1.077449 -1.877932
H 0.762676 -1.393854 -1.582262
H 0.398665 -2.114926 0.790152
O -2.599692 0.018486 -0.135741
H -1.764784 -0.101586 0.335464
H -2.498008 0.865311 -0.579038

