21
3629.9229 CC(=O)c1cccc(O)c1.O
C -2.372988 -2.102297 -0.034019
C -1.697303 -0.750234 -0.017942
O -2.379419 0.262875 -0.013894
C -0.207014 -0.687556 -0.007244
C 0.582604 -1.840463 0.036868
C 1.968126 -1.728083 0.050714
C 2.579061 -0.483411 0.02081
C 1.79203 0.667583 -0.024303
O 2.433713 1.869803 -0.052279
C 0.408956 0.566494 -0.040004
H -2.05655 -2.683032 -0.901522
H -3.44897 -1.958573 -0.06273
H -2.106326 -2.675165 0.855575
H 0.131502 -2.820471 0.063018
H 2.579314 -2.619459 0.086336
H 3.655302 -0.383935 0.032129
H 1.787066 2.584483 -0.06206
H -0.191122 1.463219 -0.080788
O -1.803925 3.052377 0.100994
H -2.147854 2.143564 0.067912
H -2.526145 3.616737 -0.185717

