17
3675.4124 CC(=O)C#CC(=O)C.O
C 2.945061 -1.400122 0.330077
C 2.003859 -0.2816 -0.009582
O 2.373733 0.846416 -0.287013
C 0.587702 -0.574131 -0.002385
C -0.611711 -0.686814 -0.010877
C -2.068792 -0.64365 -0.055372
C -2.681354 0.447138 0.77881
O -2.69296 -1.420068 -0.743997
H 3.969685 -1.038368 0.317849
H 2.821947 -2.212394 -0.389063
H 2.698214 -1.805908 1.31313
H -2.454275 0.272797 1.833239
H -2.227725 1.403645 0.51052
H -3.757657 0.460869 0.627306
O -0.05773 2.588024 -0.184221
H 0.788735 2.128712 -0.29739
H 0.128155 3.510735 -0.377773

