12
3648.6014 CC(=O)C#C.O
C -0.122851 1.411586 -0.000186
C 0.370002 -0.009458 -0.000253
O -0.364736 -0.980041 -0.000552
C 1.811345 -0.182316 7.6e-05
C 3.006085 -0.299099 0.000417
H -1.209026 1.43854 -0.00052
H 0.269152 1.931076 0.876595
H 0.269655 1.931304 -0.876617
H 4.061781 -0.420523 0.000706
O -3.10131 -0.141112 0.000482
H -2.259943 -0.625662 -0.000212
H -3.790738 -0.809792 0.000289

