20
3613.1211 CC(=O)c1ccc(F)cc1.O
C 2.135357 1.497776 -0.005986
C 1.458215 0.148021 -0.005107
O 2.114629 -0.882532 -0.006133
C -0.031081 0.083784 -0.002731
C -0.830718 1.230904 -5.9e-05
C -2.214886 1.134222 0.002362
C -2.78639 -0.12607 0.002027
F -4.128619 -0.229286 0.004248
C -2.028119 -1.286826 -0.000529
C -0.649287 -1.172626 -0.002834
H 1.842184 2.070268 0.875819
H 3.21338 1.370269 -0.01189
H 1.832963 2.074257 -0.882009
H -0.380948 2.212531 0.000322
H -2.84794 2.009323 0.004505
H -2.522402 -2.247342 -0.000592
H -0.026131 -2.055024 -0.00466
O 4.916539 -0.426007 0.019917
H 4.001548 -0.755857 0.007522
H 5.477018 -1.201652 -0.06038

