15
3635.6126 O=C1NCCN1.O
O -1.719842 -1.474222 -0.033359
C -1.021178 -0.486311 0.025041
N -1.013186 0.588021 -0.83472
C 0.113906 1.476446 -0.571156
C 0.384964 1.170021 0.911579
N -0.037271 -0.232057 0.993913
H -1.373115 0.443059 -1.762219
H 0.983885 1.217307 -1.178885
H -0.148312 2.51984 -0.734342
H 1.435154 1.285327 1.168693
H -0.220678 1.809968 1.559294
H -0.220292 -0.640975 1.896687
O 2.439106 -0.932163 -0.422217
H 2.649173 -1.822705 -0.715777
H 1.627122 -1.013422 0.104022

