14
3618.4006 CC(=O)C=C(F)F.O
C -1.450076 1.677704 -0.000382
C -0.531181 0.480527 -0.000103
O -0.950565 -0.665381 -8.8e-05
C 0.908632 0.79475 0.000233
C 1.874942 -0.121055 6.2e-05
F 3.156606 0.186552 0.000324
F 1.722867 -1.414928 -0.000407
H -2.48935 1.363615 -0.001038
H -1.249623 2.296037 0.877648
H -1.248585 2.296561 -0.877794
H 1.230028 1.824821 0.000573
O -3.790744 -0.736262 0.000437
H -2.832686 -0.903056 0.000206
H -4.208467 -1.601 -0.000499

