22
3597.1438 CC(=O)c1ccccc1N.O
C 1.688748 -1.722933 0.030388
C 1.03123 -0.359663 0.026303
O 1.751167 0.646751 0.032047
C -0.431412 -0.258582 0.013386
C -1.224533 -1.423235 0.003429
C -2.600572 -1.380364 -0.014663
C -3.236261 -0.133029 -0.024299
C -2.502552 1.030144 -0.015075
C -1.091205 1.008306 0.004645
N -0.408718 2.178997 0.019362
H 2.767533 -1.601091 0.052202
H 1.374512 -2.302543 0.899285
H 1.409433 -2.289017 -0.859248
H -0.738207 -2.386775 0.009031
H -3.178815 -2.292707 -0.022129
H -4.316856 -0.07764 -0.03926
H -3.0059 1.988923 -0.022155
H -0.902981 3.049914 -0.024541
H 0.598537 2.152713 0.006584
O 4.546479 0.184975 -0.112328
H 3.618497 0.470419 -0.040834
H 5.053453 0.817149 0.403097

