19
3530.7395 c1cc2cnccc2cn1.O
C -2.65596 -1.321593 -0.004159
C -1.315613 -1.605951 0.018369
C -0.39437 -0.537553 0.019793
C 1.013092 -0.698465 0.042462
N 1.852157 0.30939 0.042826
C 1.356646 1.574242 0.018456
C 0.016263 1.8535 -0.003688
C -0.904016 0.783995 -0.00313
C -2.313715 0.943151 -0.025238
N -3.157259 -0.058747 -0.025621
H -3.39135 -2.11573 -0.00606
H -0.966424 -2.629694 0.034248
H 1.444844 -1.693778 0.058497
H 2.093821 2.366046 0.015744
H -0.333773 2.876865 -0.022658
H -2.733933 1.944168 -0.04319
O 4.445213 -0.920575 -0.139515
H 3.648324 -0.365485 -0.037718
H 4.998532 -0.720251 0.619616

