16
3562.9773 O=c1cccncc1.O
O -3.222423 -0.39677 -0.043605
C -2.014609 -0.188987 -0.002594
C -1.527517 1.199181 0.029202
C -0.260632 1.664028 0.012264
C 0.979711 0.936493 -0.035711
N 1.218711 -0.334582 -0.031652
C 0.279062 -1.333608 0.021392
C -1.075494 -1.310208 0.032352
H -2.337423 1.918574 0.058971
H -0.135058 2.740533 0.028807
H 1.87428 1.553574 -0.076536
H 0.7383 -2.31536 0.050452
H -1.576252 -2.270336 0.06414
O 4.080729 -0.10926 0.082697
H 3.164046 -0.430386 0.001669
H 4.59155 -0.607693 -0.5601

