25
3758.6052 CC[C@H](O)c1ccccc1.O
C 3.618182 -0.862162 -0.165393
C 2.133953 -1.123685 0.076316
C 1.255076 0.079927 -0.265648
O 1.647449 1.151077 0.588342
C -0.219839 -0.24618 -0.118813
C -1.018083 -0.477412 -1.237975
C -2.369583 -0.78416 -1.099451
C -2.939266 -0.858958 0.16571
C -2.150922 -0.624468 1.289848
C -0.803473 -0.319384 1.148066
H 3.961607 -0.017438 0.429322
H 4.216324 -1.735421 0.097829
H 3.807774 -0.631686 -1.216102
H 1.794439 -1.97496 -0.518129
H 1.958938 -1.378726 1.124547
H 1.441162 0.355512 -1.312675
H 1.095155 1.917443 0.37279
H -0.580229 -0.410923 -2.226504
H -2.975248 -0.958403 -1.9788
H -3.989154 -1.094168 0.276811
H -2.589416 -0.678319 2.277623
H -0.192198 -0.118752 2.017244
O -0.514045 2.898107 -0.333836
H -0.967002 3.509167 0.254809
H -1.085654 2.122095 -0.390766

