13
3629.5566 Nc1cnn[nH]1.O
N -0.907225 1.483959 0.082499
C 0.212041 0.627092 0.04935
C 1.558947 0.810119 -0.152844
N 2.165523 -0.408002 -0.128477
N 1.274316 -1.328346 0.085033
N 0.082591 -0.711337 0.187552
H -1.231346 1.655189 1.027804
H -0.701495 2.373103 -0.351063
H 2.109413 1.721215 -0.307761
H -0.783192 -1.229397 0.275246
O -2.806899 -0.697026 -0.064247
H -3.397163 -0.99616 -0.761121
H -2.473396 0.175072 -0.334406

