16
3605.5495 CCC(=O)C.O
C 2.450274 -0.398408 -0.733244
C 1.71808 -0.076065 0.580261
C 0.233442 0.079252 0.327524
C -0.264758 1.453958 -0.038434
O -0.508874 -0.882218 0.400125
H 2.068696 -1.322501 -1.166313
H 2.325674 0.398821 -1.467092
H 3.517471 -0.520849 -0.551649
H 1.855547 -0.890209 1.290968
H 2.12168 0.841114 1.013378
H -1.287449 1.420589 -0.403059
H -0.220483 2.084679 0.853698
H 0.391446 1.913271 -0.779605
O -3.174545 -0.20988 -0.303923
H -2.326893 -0.603491 -0.032758
H -3.800564 -0.937064 -0.343827

