19
3512.8798 Nc1ccccc1N.O
N -1.216644 1.241086 0.72222
C 0.013959 0.644605 0.344259
C 1.117501 1.412899 -0.007864
C 2.314709 0.815603 -0.387554
C 2.410861 -0.569373 -0.408151
C 1.305678 -1.344421 -0.076587
C 0.093345 -0.760507 0.288713
N -1.024324 -1.520937 0.668623
H -1.118604 2.219017 0.954974
H -1.64956 0.749217 1.497024
H 1.041401 2.493109 0.032078
H 3.163392 1.430297 -0.652769
H 3.337296 -1.049519 -0.691463
H 1.374603 -2.425021 -0.110496
H -1.884232 -1.25166 0.20004
H -0.877055 -2.514565 0.579126
O -3.196778 0.04031 -0.949869
H -3.087128 0.106174 -1.902263
H -2.575437 0.686596 -0.560101

