18
3638.9971 CC(=O)CCC=O.O
C 1.722601 1.572992 -0.114663
C 0.802493 0.387544 0.018419
O 1.209011 -0.75674 0.034591
C -0.679977 0.695535 0.133905
C -1.577739 -0.528259 -0.048252
C -2.99645 -0.220178 0.344007
O -3.949124 -0.301394 -0.387764
H 1.432304 2.367507 0.574246
H 2.757096 1.28392 0.047142
H 1.620374 1.97668 -1.125601
H -0.823343 1.143439 1.124908
H -0.933583 1.483502 -0.579611
H -1.208062 -1.330928 0.596443
H -1.554727 -0.885327 -1.076386
H -3.125876 0.111658 1.397851
O 4.063938 -0.808521 -0.014222
H 3.112185 -1.002599 -0.00902
H 4.507459 -1.660419 -0.011296

