23
3598.1407 CC(=O)c1ccc(C)cc1.O
C -2.179105 1.501524 -0.001273
C -1.49977 0.152115 0.002605
O -2.158297 -0.878049 0.004201
C -0.01191 0.089956 0.003543
C 0.614321 -1.162266 0.005132
C 1.993135 -1.260344 0.007164
C 2.798848 -0.116262 0.006433
C 4.297407 -0.237325 -0.016147
C 2.172713 1.129413 0.007638
C 0.788352 1.234489 0.005441
H -3.257099 1.372928 -0.00124
H -1.880943 2.074029 -0.881273
H -1.881942 2.078812 0.875932
H -0.003534 -2.048779 0.00677
H 2.459383 -2.237641 0.011374
H 4.644655 -0.525572 -1.01127
H 4.780897 0.703191 0.244096
H 4.641688 -1.003616 0.67933
H 2.774903 2.028835 0.01194
H 0.33944 2.21709 0.007429
O -4.958344 -0.452652 -0.018754
H -4.033426 -0.75602 -0.007258
H -5.494832 -1.245447 0.057369

