24
3764.4916 NC[C@@H](O)c1ccccc1.O
N 3.541619 -0.888557 0.075834
C 2.13926 -1.054204 -0.298204
C 1.275151 0.0951 0.231618
O 1.636934 1.272349 -0.466269
C -0.199984 -0.239703 0.081128
C -0.875048 0.048792 -1.105835
C -2.221008 -0.271972 -1.250268
C -2.910393 -0.888905 -0.211142
C -2.244945 -1.181513 0.974785
C -0.900488 -0.856125 1.117444
H 4.136724 -1.51916 -0.444224
H 3.683099 -1.079971 1.059843
H 2.065291 -1.039707 -1.38716
H 1.696845 -1.9978 0.047154
H 1.490416 0.209328 1.304408
H 1.104015 2.004297 -0.122385
H -0.338081 0.540211 -1.905309
H -2.731786 -0.039119 -2.175225
H -3.957469 -1.135793 -0.322934
H -2.774159 -1.656468 1.790266
H -0.390281 -1.077852 2.047123
O -0.54819 2.937782 0.532123
H -0.717185 3.228153 1.433122
H -1.14399 2.193911 0.380488

