23
3636.6916 CC(=O)c1cccc(C)c1.O
C -2.488596 -1.992747 0.037549
C -1.741132 -0.677542 0.026273
O -2.371525 0.368257 0.030991
C -0.250654 -0.693555 0.009186
C 0.470239 -1.889608 -0.042415
C 1.858646 -1.862052 -0.062672
C 2.53216 -0.648933 -0.029738
C 1.833706 0.561323 0.024786
C 2.572893 1.872535 0.06503
C 0.445385 0.521291 0.043364
H -3.554996 -1.790645 0.072342
H -2.201486 -2.596108 0.899903
H -2.258549 -2.573447 -0.857269
H -0.038767 -2.841553 -0.07016
H 2.415557 -2.788269 -0.105444
H 3.615149 -0.637658 -0.0469
H 1.884778 2.715613 0.046272
H 3.249244 1.966259 -0.786578
H 3.179826 1.950257 0.969475
H -0.10898 1.446665 0.086798
O -1.756387 3.142972 -0.126171
H -2.077244 2.227087 -0.074775
H -2.477118 3.687698 0.199594

