19
3683.7521 O=CC(=O)c1ccccc1.O
O -0.550233 3.081239 0.417278
C -1.290441 2.272772 -0.073518
C -1.067759 0.748783 -0.095502
O -2.108259 0.109343 -0.130073
C 0.275949 0.150918 -0.037529
C 0.391155 -1.229686 0.187971
C 1.640262 -1.824559 0.22102
C 2.786054 -1.057435 0.019991
C 2.680636 0.309604 -0.210929
C 1.433704 0.917126 -0.23525
H -2.280637 2.54003 -0.488048
H -0.495777 -1.827074 0.338015
H 1.722864 -2.887606 0.399842
H 3.760403 -1.527003 0.043
H 3.569879 0.903802 -0.369055
H 1.36126 1.979331 -0.40362
O -2.660759 -2.717676 -0.072513
H -2.635335 -1.75005 -0.122184
H -3.546015 -2.939816 0.22699

