19
3775.1229 Nc1cccc(N)c1F.O
N 1.439669 -1.577081 0.441876
C 0.186554 -1.057757 0.173274
C -0.930873 -1.8734 -0.060024
C -2.180521 -1.307894 -0.264302
C -2.368151 0.067361 -0.250352
C -1.276376 0.911713 -0.021038
N -1.386811 2.298792 -0.047213
C -0.037551 0.316503 0.183481
F 1.028609 1.155074 0.429958
H 2.241432 -1.001793 0.222597
H 1.565822 -2.542576 0.18991
H -0.804179 -2.947727 -0.072427
H -3.029195 -1.954617 -0.441452
H -3.346418 0.496157 -0.420236
H -0.659052 2.799685 0.435839
H -2.30523 2.657419 0.154929
O 3.678912 0.398287 -0.4467
H 3.939856 0.469106 -1.369354
H 2.979682 1.051246 -0.324702

