17
3614.302 Nc1ccccc1F.O
N -1.471818 0.49591 -0.933654
C -0.209389 0.041282 -0.52461
C 0.158655 -1.303085 -0.598382
C 1.393837 -1.728179 -0.126469
C 2.286681 -0.823095 0.436991
C 1.936582 0.520696 0.52386
C 0.707205 0.921719 0.046031
F 0.35588 2.233989 0.11748
H -1.857695 -0.009351 -1.717572
H -1.520298 1.493209 -1.080629
H -0.539574 -2.014295 -1.020343
H 1.655877 -2.774645 -0.196385
H 3.246235 -1.15476 0.806391
H 2.599607 1.259428 0.950859
O -3.514129 -0.65459 0.876352
H -3.196057 -0.74492 1.77852
H -2.816684 -0.171246 0.402076

