20
3672.4692 CC(=O)c1ccccc1F.O
C 1.684079 2.4109 -0.199151
C 1.350496 0.935093 -0.179967
O 2.240789 0.105659 -0.215462
C -0.08533 0.541283 -0.093374
C -1.031537 1.380556 0.509449
C -2.355108 0.99668 0.651841
C -2.770389 -0.240011 0.167339
C -1.864331 -1.084129 -0.458465
C -0.544216 -0.68851 -0.577083
F 0.292767 -1.512147 -1.220375
H 2.725582 2.529129 -0.484359
H 1.548475 2.833877 0.798714
H 1.037374 2.962417 -0.880895
H -0.717938 2.340912 0.891782
H -3.059785 1.656289 1.137778
H -3.801755 -0.547317 0.272047
H -2.156132 -2.045619 -0.854657
O 1.655645 -2.308758 1.293819
H 1.918554 -1.630616 0.651992
H 2.39727 -2.37614 1.90059

