14
3751.793 CN(O)C(=O)C#N.O
C -2.107958 -1.187638 0.097616
N -0.845628 -0.507053 -0.090087
O 0.082379 -1.201488 -0.862244
C -0.689627 0.82611 0.086959
O -1.511913 1.584041 0.562817
C 0.66529 1.30382 -0.264906
N 1.721738 1.721664 -0.443381
H -1.941049 -2.110085 0.651272
H -2.76778 -0.529162 0.654954
H -2.550667 -1.423245 -0.871208
H 0.838304 -1.404903 -0.267709
O 2.399396 -1.24828 0.572424
H 2.692551 -0.349089 0.374136
H 2.630739 -1.413728 1.490845

