21
3522.0242 Nc1cccc(N)c1N.O
N 1.49796 -1.574243 0.641538
C 0.240246 -1.064387 0.272983
C -0.823496 -1.889651 -0.094505
C -2.062253 -1.344001 -0.401705
C -2.247262 0.031594 -0.383837
C -1.19837 0.872312 -0.012855
N -1.36044 2.273103 0.086045
C 0.032779 0.320436 0.357871
N 1.088619 1.164494 0.795058
H 2.273067 -1.140376 0.149327
H 1.555277 -2.577939 0.563717
H -0.669455 -2.959938 -0.145726
H -2.879925 -1.992496 -0.684646
H -3.202301 0.460617 -0.6591
H -0.653095 2.800359 -0.408808
H -2.275063 2.584109 -0.204645
H 1.670738 0.682304 1.472709
H 0.7292 2.013159 1.215222
O 3.210579 0.497189 -0.987387
H 3.038236 0.548391 -1.931313
H 2.495858 1.003006 -0.553833

