20
3662.6899 FCC(=O)c1ccccc1.O
F -0.339167 -2.920394 0.598827
C -1.267619 -2.219001 -0.164852
C -1.088224 -0.703731 -0.10388
O -2.110061 -0.039416 -0.161513
C 0.261534 -0.102161 -0.037479
C 1.411589 -0.831853 -0.363414
C 2.655231 -0.217284 -0.346814
C 2.765621 1.121433 0.013315
C 1.627749 1.851094 0.347679
C 0.381032 1.248465 0.316731
H -2.266134 -2.453224 0.199236
H -1.174314 -2.546705 -1.204425
H 1.340362 -1.874381 -0.632293
H 3.537933 -0.783603 -0.609849
H 3.737391 1.596357 0.033742
H 1.712516 2.891922 0.627695
H -0.501609 1.819205 0.56468
O -2.607338 2.784289 -0.118913
H -2.554059 1.818586 -0.197464
H -3.521859 2.974619 0.104923

