21
3735.5757 O[C@]12[C@H]3N[C@H]([C@@H](F)[C@@H]13)C2=C.O
O -1.0609 -1.843146 0.607782
C -0.083684 -0.921399 0.316389
C 1.269449 -0.890042 0.997398
N 2.269605 -0.334691 0.075086
C 1.350628 0.523739 -0.724653
C 0.743233 1.369726 0.418645
F -0.359797 2.126191 -0.035809
C 0.299032 0.222335 1.282925
C 0.186262 -0.392449 -1.051041
C -0.404238 -0.669323 -2.200764
H -1.902641 -1.356691 0.583656
H 1.568833 -1.610826 1.741039
H 2.649116 -1.068185 -0.51641
H 1.831249 1.060116 -1.534781
H 1.441273 2.069221 0.872174
H -0.1904 0.335707 2.236409
H -1.219919 -1.378991 -2.246237
H -0.090668 -0.201577 -3.124309
O -2.845599 0.392168 0.360426
H -3.511288 0.501757 -0.324211
H -2.136725 1.008885 0.130293

