25
3653.2758 COCCOC(=O)[C@@H](C)O.O
C 3.968403 0.110386 -0.449576
O 3.363915 -0.548791 0.652311
C 2.026752 -0.154129 0.903557
C 1.054984 -0.927867 0.024168
O -0.2673 -0.455147 0.366607
C -1.233092 -0.594594 -0.551604
O -1.133142 -1.220325 -1.574498
C -2.513469 0.116893 -0.116793
C -3.44169 -0.860786 0.597688
O -2.253076 1.282099 0.668132
H 4.993752 -0.249102 -0.507649
H 3.974907 1.196217 -0.304867
H 3.464232 -0.111718 -1.395629
H 1.881464 0.917881 0.736993
H 1.826335 -0.372358 1.953428
H 1.114729 -1.999918 0.210574
H 1.229765 -0.744903 -1.033544
H -2.982945 0.478772 -1.029586
H -3.66332 -1.712671 -0.044234
H -4.372011 -0.35811 0.857035
H -2.975835 -1.230432 1.513139
H -1.815292 1.008226 1.482723
O 0.145996 2.395703 -0.574059
H 0.006506 3.228841 -1.031942
H -0.704758 2.181542 -0.159024

