21
3649.7782 OCC(=O)c1ccccc1.O
O 0.607925 -2.847213 -0.685547
C 1.403944 -2.11368 0.239654
C 1.128998 -0.615569 0.133495
O 2.091656 0.133967 0.167037
C -0.263923 -0.113789 0.053837
C -1.358901 -0.923758 0.376824
C -2.645273 -0.404509 0.346665
C -2.853221 0.919515 -0.02428
C -1.770338 1.728845 -0.357361
C -0.482343 1.220442 -0.313066
H 0.917563 -3.756961 -0.706848
H 1.193972 -2.415112 1.275616
H 2.471133 -2.244541 0.055356
H -1.208899 -1.957814 0.644981
H -3.485395 -1.033847 0.60653
H -3.857595 1.320511 -0.054766
H -1.930176 2.758321 -0.64673
H 0.356666 1.853537 -0.560578
O 2.410792 2.973996 0.098305
H 2.398491 2.006072 0.175451
H 3.307595 3.198857 -0.16198

