13
3705.4223 CC(=O)C(F)(F)F.O
C -0.80994 1.433301 -0.000531
C -0.294582 0.028946 -0.000566
O -0.960607 -0.973089 -0.000978
C 1.259604 -0.105603 0.000106
F 1.659503 -1.372159 -0.0002
F 1.770911 0.504192 1.090087
F 1.772055 0.505067 -1.088811
H -0.42681 1.958871 0.876174
H -0.42555 1.959539 -0.876262
H -1.895621 1.435783 -0.001223
O -3.735986 -0.128417 0.000805
H -2.945763 -0.687458 5.6e-05
H -4.486214 -0.728443 -0.001102

