19
3633.8695 O=CO[N][C]1NCCN1.O
O 3.722154 0.612315 -0.498863
C 3.213515 -0.008422 0.384145
O 1.90656 -0.303459 0.54806
N 1.055324 0.239743 -0.480448
C -0.125632 -0.231323 -0.279548
N -0.584418 -1.1291 0.642399
C -2.047612 -1.186144 0.605772
C -2.315274 -0.753081 -0.840358
N -1.199059 0.179152 -1.071454
H 3.744108 -0.457416 1.236574
H -0.072665 -1.233039 1.501249
H -2.49674 -0.479707 1.306836
H -2.407904 -2.191537 0.812278
H -3.270423 -0.246538 -0.951632
H -2.272195 -1.609694 -1.518777
H -0.960438 0.407104 -2.024524
O -2.54767 2.086356 0.686049
H -2.214597 2.963192 0.894822
H -1.950413 1.731186 0.007658

