19
3560.3139 Nc1ccc(N)cc1.O
N -2.086779 0.107256 1.054835
C -0.71965 0.068071 0.68009
C -0.031602 1.236984 0.359772
C 1.284786 1.192548 -0.076703
C 1.959214 -0.023565 -0.210356
N 3.268012 -0.073119 -0.709867
C 1.264421 -1.193458 0.106654
C -0.051912 -1.147728 0.542795
H -2.357351 0.974801 1.495785
H -2.364944 -0.668737 1.638642
H -0.529801 2.194595 0.447209
H 1.793683 2.116508 -0.321706
H 3.794642 -0.88968 -0.443389
H 3.806372 0.768091 -0.576829
H 1.75685 -2.152669 0.00616
H -0.567092 -2.071888 0.773966
O -3.700642 -0.133378 -1.392221
H -3.075542 -0.191451 -2.119599
H -3.151851 -0.048609 -0.590757

