23
3628.1283 C[C@@H](O)C(=O)OCC(=O)C.O
C 1.657695 -1.126619 -1.455903
C 1.701244 -1.071243 0.076617
O 2.879417 -0.494395 0.575656
C 0.451185 -0.343544 0.559937
O 0.355774 0.844657 0.770124
O -0.586532 -1.191228 0.692805
C -1.856145 -0.592318 0.927699
C -2.409977 0.097098 -0.317839
C -3.692777 0.860461 -0.105521
O -1.844635 0.030274 -1.380277
H 1.703649 -0.118093 -1.8673
H 2.519887 -1.689159 -1.809915
H 0.742029 -1.599183 -1.808875
H 1.659235 -2.085036 0.475668
H 2.973925 0.414844 0.240032
H -1.805995 0.124091 1.749498
H -2.523914 -1.405186 1.213359
H -4.138542 1.109231 -1.064641
H -3.465151 1.78309 0.434039
H -4.398961 0.294684 0.504569
O 2.62073 2.25413 -0.090142
H 2.496813 2.657483 -0.953437
H 1.731659 2.022715 0.231741

