20
3722.5691 C[C@H](O)C(=O)OCC#C.O
C -3.013378 0.144513 0.816156
C -1.953333 -0.318315 -0.181782
O -1.353834 -1.549666 0.204385
C -0.884726 0.757674 -0.331425
O -1.128104 1.847228 -0.78548
O 0.322692 0.369799 0.096969
C 1.384677 1.340352 -0.069453
C 2.636443 0.704623 0.300037
C 3.676802 0.189972 0.595752
H -3.825913 -0.581864 0.858111
H -2.577122 0.235501 1.81062
H -3.422774 1.106429 0.512812
H -2.401174 -0.40672 -1.177313
H -2.029723 -2.233272 0.23252
H 1.178964 2.208502 0.558482
H 1.402802 1.676957 -1.106725
H 4.598755 -0.266252 0.860175
O 1.346659 -2.500739 -0.603443
H 1.99635 -1.852897 -0.313835
H 0.50163 -2.132285 -0.310016

