23
3612.523 C[C@H](O)c1cccc(O)c1.O
C 1.241671 -2.472549 -0.467431
C 1.372842 -0.966709 -0.308005
O 2.198848 -0.667881 0.848622
C 0.072289 -0.188022 -0.230869
C 0.122767 1.204883 -0.355596
C -1.039887 1.951866 -0.247464
C -2.264886 1.333009 -0.017127
C -2.315475 -0.050472 0.104634
O -3.481097 -0.733171 0.328828
C -1.151071 -0.80862 -0.001441
H 2.234147 -2.912786 -0.545942
H 0.742709 -2.920911 0.392818
H 0.675084 -2.723185 -1.364696
H 1.953813 -0.571461 -1.142489
H 1.64286 -0.699576 1.634479
H 1.070324 1.6962 -0.528317
H -0.998586 3.028269 -0.345093
H -3.171805 1.920324 0.063216
H -4.217253 -0.116049 0.38195
H -1.237116 -1.880975 0.091601
O 3.471028 1.714699 0.048176
H 4.414195 1.751277 0.225168
H 3.151902 0.899385 0.472097

