19
3584.1042 Nc1cccc(N)c1.O
N 1.884955 -0.306329 -1.074618
C 0.571912 -0.428323 -0.576319
C 0.141022 -1.630173 -0.010811
C -1.133691 -1.701914 0.535774
C -1.983993 -0.606953 0.532324
C -1.554885 0.602207 -0.029217
N -2.411427 1.698724 -0.089075
C -0.27321 0.679058 -0.579596
H 2.304281 -1.184028 -1.34338
H 1.986208 0.373639 -1.813987
H 0.795984 -2.491168 0.002838
H -1.470949 -2.632496 0.972632
H -2.976859 -0.68276 0.955739
H -3.163226 1.703435 0.580184
H -1.971292 2.599745 -0.177961
H 0.070355 1.612648 -1.009546
O 3.45414 1.001862 1.061749
H 2.932506 0.934053 1.865839
H 2.942241 0.521861 0.386568

