22
3623.7993 C[C@H](O)C(=O)OCCO.O
C -2.667957 0.177569 -0.918757
C -1.953805 -0.161834 0.385667
O -1.573772 0.989527 1.117904
C -0.729695 -1.047661 0.152193
O -0.546508 -2.136127 0.63527
O 0.159255 -0.427647 -0.65985
C 1.440558 -1.050168 -0.840612
C 2.383432 -0.665687 0.274791
O 2.611339 0.751063 0.204122
H -2.972731 -0.727602 -1.447229
H -3.555536 0.767993 -0.694938
H -2.013102 0.757522 -1.568048
H -2.609273 -0.735228 1.039502
H -0.984587 1.548292 0.576019
H 1.332337 -2.133312 -0.877254
H 1.807354 -0.677653 -1.795007
H 3.32479 -1.20889 0.146077
H 1.944788 -0.940641 1.236456
H 3.122887 1.025906 0.970199
O 0.353617 2.513963 -0.27585
H 0.618216 3.362345 0.089621
H 1.118212 1.921728 -0.16786

