20
3695.8191 Cc1ccc(O)c(c1)C#N.O
C -3.70612 0.80453 -0.034028
C -2.316438 0.225935 -0.012205
C -2.117399 -1.162891 0.000704
C -0.855702 -1.720714 0.017224
C 0.288194 -0.914289 0.02249
O 1.472994 -1.541055 0.04134
C 0.104477 0.482389 0.014987
C -1.19231 1.028576 -0.00438
C 1.224821 1.355791 0.035707
N 2.155175 2.038754 0.057599
H -4.281578 0.480428 0.835299
H -4.253002 0.481843 -0.922183
H -3.684791 1.893432 -0.032954
H -2.978965 -1.819212 -0.004256
H -0.717085 -2.792384 0.024021
H 2.268661 -0.966794 -0.01776
H -1.293175 2.105569 -0.011352
O 3.897914 -0.26418 -0.15897
H 4.561831 -0.497509 0.496301
H 3.747479 0.689273 -0.072257

