19
3683.4934 C[C@@H](O)C(=O)OC=C(F)F.O
C 1.296289 -2.383086 -0.322022
C 1.668342 -1.029954 0.27815
O 2.987431 -0.742471 -0.092732
C 0.699251 0.070293 -0.155531
O 0.990556 1.141192 -0.626075
O -0.583154 -0.297394 0.102962
C -1.586431 0.606048 -0.17586
C -2.840045 0.254631 0.049533
F -3.867462 1.052587 -0.18353
F -3.233348 -0.91 0.526648
H 2.012443 -3.123429 0.028778
H 0.293896 -2.685173 -0.029186
H 1.356207 -2.335786 -1.409081
H 1.559035 -1.085772 1.372002
H 3.257022 0.134893 0.232922
H -1.323516 1.572138 -0.570447
O 3.42328 1.982026 0.521017
H 4.139458 2.420167 0.052588
H 2.643399 2.045271 -0.052641

