17
3612.2104 Nc1cccc(F)c1.O
N -1.809622 -0.013117 1.130093
C -0.522161 0.229472 0.624339
C -0.162136 1.505726 0.181628
C 1.089504 1.722724 -0.376969
C 2.007886 0.686919 -0.51201
C 1.624213 -0.565882 -0.069345
F 2.493539 -1.59411 -0.185551
C 0.387614 -0.821756 0.491777
H -2.257698 0.794014 1.53757
H -1.878376 -0.810817 1.744166
H -0.865756 2.322702 0.271774
H 1.35525 2.715564 -0.712869
H 2.986751 0.83404 -0.942216
H 0.145903 -1.825467 0.812831
O -3.69625 -0.628154 -1.08383
H -3.213288 -0.669072 -1.913551
H -3.026809 -0.440147 -0.404285

