15
3617.4275 OCC(F)(F)C#CC#N.O
O -0.964598 1.822948 0.566211
C -1.606269 1.001045 -0.365387
C -1.420257 -0.493126 -0.057463
F -2.04909 -1.219673 -1.036464
F -2.024496 -0.811092 1.123792
C -0.005203 -0.8741 0.006803
C 1.185497 -1.029789 0.034897
C 2.547892 -1.118918 0.072276
N 3.703428 -1.133735 0.104206
H -0.031586 1.935037 0.317376
H -2.681172 1.180843 -0.31349
H -1.269441 1.166243 -1.392886
O 1.715846 2.206364 -0.30642
H 2.466918 1.671285 -0.028138
H 2.033624 3.114451 -0.323329

