17
3686.9556 C/N=C/N(C)O.O
C 3.217714 0.479108 0.168794
N 1.796453 0.488931 -0.101451
C 1.078055 -0.489068 0.275536
N -0.281415 -0.447087 0.122898
C -1.053987 -1.63317 -0.188947
O -0.698846 0.646257 -0.676508
H 3.477144 1.316128 0.820554
H 3.563955 -0.446827 0.644997
H 3.769772 0.613199 -0.762912
H 1.438807 -1.389765 0.776624
H -0.930347 -1.931776 -1.234385
H -2.102576 -1.427157 0.01199
H -0.718055 -2.43556 0.466139
H 0.14319 1.146766 -0.779342
O -3.333737 0.819453 0.464536
H -2.473209 1.014133 0.06364
H -3.963984 1.381046 0.00605

