17
3743.9622 Oc1cccc(c1)C#N.O
O -1.770299 2.241738 7e-06
C -1.400616 0.930408 2e-06
C -2.419248 -0.022173 -6e-06
C -2.103521 -1.373089 -1.1e-05
C -0.780467 -1.795329 -8e-06
C 0.231472 -0.833071 -4e-06
C -0.069487 0.532913 1e-06
C 1.605634 -1.224749 3e-06
N 2.726425 -1.494886 9e-06
H -0.990661 2.806989 1.1e-05
H -3.446485 0.313538 -1e-06
H -2.89896 -2.105107 -1.9e-05
H -0.530678 -2.845658 -1.1e-05
H 0.733378 1.258976 1e-06
O 3.074683 1.62453 7.8e-05
H 3.896827 2.122002 -0.000664
H 3.333923 0.693854 8.4e-05

