18
3658.82 OC(=O)c1ccccc1.O
O -0.959534 2.505442 0.258075
C -1.036042 1.170297 0.048684
O -2.123072 0.671533 -0.110392
C 0.247398 0.40831 0.032519
C 0.21439 -0.957983 0.321277
C 1.389644 -1.695325 0.314337
C 2.600477 -1.084399 0.004304
C 2.63718 0.271597 -0.301767
C 1.465897 1.01618 -0.283988
H -0.060522 2.768018 0.486207
H -0.726942 -1.436702 0.547228
H 1.357762 -2.750776 0.54625
H 3.513168 -1.664594 -0.006225
H 3.573095 0.746308 -0.561764
H 1.508388 2.062389 -0.560931
O -2.881015 -2.074764 -0.257316
H -2.750547 -1.113398 -0.291859
H -3.819089 -2.200997 -0.094037

