20
3490.9085 c1ccc2cnccc2c1.O
C 3.168394 -0.027415 0.01659
C 2.725973 1.314527 0.003879
C 1.385564 1.599552 -0.010304
C 0.436791 0.55141 -0.012637
C -0.959348 0.785556 -0.027289
N -1.860159 -0.168023 -0.029803
C -1.432721 -1.457456 -0.014832
C -0.110583 -1.809605 -0.000481
C 0.879979 -0.800716 0.000555
C 2.269953 -1.063171 0.015142
H 4.229961 -0.23479 0.028037
H 3.452678 2.115222 0.005888
H 1.038253 2.624674 -0.019318
H -1.3302 1.805666 -0.035089
H -2.211633 -2.208561 -0.012577
H 0.177123 -2.852387 0.011527
H 2.61268 -2.089563 0.025551
O -4.562896 0.792053 0.134095
H -3.668909 0.403861 0.045722
H -4.959671 0.719524 -0.737611

