18
3723.6224 O=C(C#N)c1ccccc1.O
O -1.598431 -0.935547 -0.005356
C -0.852106 0.023627 -0.003031
C -1.433186 1.380103 -0.002096
N -1.885954 2.43733 -0.001686
C 0.617385 -0.061442 -0.001154
C 1.416669 1.086447 0.000514
C 2.798638 0.965624 0.002218
C 3.384471 -0.295577 0.002343
C 2.590905 -1.442647 0.000754
C 1.212491 -1.329698 -0.001008
H 0.959423 2.066369 0.000475
H 3.416919 1.852133 0.00348
H 4.462118 -0.387966 0.003716
H 3.052943 -2.419935 0.000945
H 0.579088 -2.205011 -0.002177
O -4.558518 -0.94974 0.011773
H -3.591868 -0.974249 0.00436
H -4.832953 -1.868984 -0.041563

