14
3776.5711 OCC#CC(F)(F)F.O
O -3.067704 -0.430438 0.507297
C -2.268213 -1.280673 -0.288898
C -0.841055 -0.965411 -0.184837
C 0.303767 -0.622586 -0.091689
C 1.648553 -0.087579 0.025638
F 1.606866 1.270703 0.124062
F 2.41192 -0.381062 -1.043077
F 2.292729 -0.538804 1.117286
H -2.822192 0.489223 0.308225
H -2.551985 -1.238552 -1.348109
H -2.440625 -2.302345 0.053606
O -1.829416 2.03757 -0.209895
H -0.889575 1.858303 -0.089422
H -1.980601 2.916271 0.150765

