19
3711.5416 Oc1cc(=O)cccc1C#N.O
O 0.313459 -2.131117 -0.000138
C -0.458404 -1.014768 -6.9e-05
C -1.81275 -1.112765 -5.9e-05
C -2.868192 -0.109931 5.2e-05
O -4.043006 -0.472844 0.000176
C -2.581748 1.332299 -9e-06
C -1.402358 1.991609 -1.1e-05
C -0.071248 1.477989 5e-06
C 0.359258 0.184449 -1.7e-05
C 1.778741 -0.011598 -1.1e-05
N 2.923633 -0.119671 1.7e-05
H -0.235489 -2.923145 -0.000159
H -2.222435 -2.117832 -0.000106
H -3.490707 1.921357 -2.3e-05
H -1.458588 3.073348 -2.2e-05
H 0.709826 2.227026 3e-05
O 5.887467 0.4141 -0.000385
H 6.359249 -0.422786 0.003824
H 4.949544 0.174908 -0.000179

