28
3588.4576 CCCCC(=O)CCC.O
C -3.98326 0.296991 -1.059443
C -2.596232 -0.254007 -0.737289
C -2.338195 -0.358733 0.766848
C -0.950974 -0.896142 1.100743
C 0.19053 0.053049 0.802277
O -0.004227 1.236806 0.590017
C 1.579403 -0.536091 0.748886
C 1.947891 -0.887609 -0.705963
C 3.346242 -1.490464 -0.808302
H -4.148881 0.356461 -2.135819
H -4.108881 1.300207 -0.647384
H -4.767021 -0.334943 -0.635874
H -2.480002 -1.243577 -1.191
H -1.835047 0.386834 -1.18652
H -2.456218 0.626063 1.223283
H -3.089869 -1.010829 1.219171
H -0.754027 -1.841776 0.585611
H -0.865147 -1.131281 2.168547
H 1.634045 -1.433283 1.369413
H 2.288695 0.200587 1.125874
H 1.895143 0.023558 -1.302255
H 1.210544 -1.585745 -1.112353
H 3.592085 -1.73393 -1.842565
H 4.095205 -0.786763 -0.442692
H 3.427708 -2.406681 -0.219701
O 2.411243 2.444463 -0.258956
H 2.413754 3.403094 -0.317076
H 1.519352 2.199895 0.046303

