25
3615.9865 O=C1CCCCCC(=O)C1.O
O -1.489077 1.655389 0.157374
C -0.641007 1.159717 -0.56318
C 0.702326 1.832617 -0.720089
C 1.680466 1.502583 0.437582
C 2.331041 0.107515 0.396082
C 1.640665 -1.016992 1.181756
C 0.158495 -1.286995 0.845183
C -0.054028 -1.314367 -0.651763
O 0.398544 -2.187053 -1.352685
C -0.867241 -0.163403 -1.262322
H 0.516071 2.90652 -0.719485
H 1.164586 1.558958 -1.669692
H 2.471268 2.25175 0.384933
H 1.170602 1.665231 1.390058
H 3.344513 0.192117 0.793151
H 2.451939 -0.202804 -0.645506
H 2.202501 -1.935285 1.006951
H 1.705248 -0.804048 2.250999
H -0.125686 -2.262398 1.239938
H -0.492546 -0.549625 1.309783
H -1.917633 -0.44094 -1.156277
H -0.607942 -0.098705 -2.318059
O -3.24089 -0.40043 0.952922
H -4.102364 -0.20939 1.332234
H -2.833483 0.461309 0.760598

