15
3646.275 CC#CC(=O)C.O
C -2.674805 -1.265619 -2e-06
C -1.258897 -0.957056 5.2e-05
C -0.094427 -0.653922 0.000115
C 1.269186 -0.189818 9.8e-05
C 2.350012 -1.23772 -0.00031
O 1.52016 1.005403 0.000429
H -2.942844 -1.846672 0.884128
H -2.941501 -1.85367 -0.879887
H -3.262437 -0.346815 -0.003973
H 2.242167 -1.878493 -0.877492
H 3.327355 -0.762208 -0.000696
H 2.242855 -1.878355 0.877064
O -0.945129 2.587744 -0.00028
H -0.091791 2.123993 7e-05
H -0.720467 3.521851 -0.000117

