19
3674.2814 CC(=O)C#CC#CC(=O)C.O
C 3.647288 -1.915896 0.224426
C 3.022872 -0.560395 0.037188
O 3.677519 0.461024 -0.084474
C 1.582118 -0.514384 0.004638
C 0.37346 -0.449476 -0.027968
C -0.975119 -0.356567 -0.063962
C -2.182897 -0.276264 -0.10252
C -3.62838 -0.159188 -0.14578
C -4.279467 0.364665 1.108231
O -4.241114 -0.468389 -1.145556
H 4.729744 -1.819709 0.241132
H 3.293722 -2.361949 1.155901
H 3.340244 -2.579884 -0.58584
H -3.896591 1.361432 1.335652
H -5.356879 0.39986 0.968485
H -4.029955 -0.276685 1.955681
O 1.991622 2.844856 -0.124884
H 2.647967 2.131562 -0.14702
H 2.488289 3.650474 -0.290203

