20
3646.0221 CC(=O)c1ccc(F)cc1.O
C -1.967562 -2.430597 -0.004059
C -1.653606 -0.950806 -0.019439
O -2.569836 -0.144255 -0.036735
C -0.230126 -0.515049 -0.013381
C 0.821049 -1.438419 0.036728
C 2.142174 -1.01746 0.044013
C 2.39849 0.342009 -0.001054
F 3.67843 0.759182 0.005277
C 1.386828 1.28736 -0.052771
C 0.072394 0.853161 -0.058381
H -1.563673 -2.901547 0.893627
H -3.045404 -2.560202 -0.025269
H -1.522703 -2.931866 -0.864968
H 0.619256 -2.498521 0.072262
H 2.96412 -1.716986 0.083839
H 1.636052 2.337872 -0.086651
H -0.725223 1.579421 -0.099542
O -2.785533 2.685546 0.114198
H -2.855746 1.718471 0.05685
H -3.587436 3.029198 -0.28728

