21
3503.2338 CNCCNC.O
C -2.989402 0.266934 -0.522699
N -1.775346 -0.498707 -0.266243
C -0.951556 0.054136 0.807665
C 0.386672 -0.666298 0.878763
N 1.138701 -0.473374 -0.360707
C 2.357207 -1.270209 -0.438295
H -3.57945 -0.227335 -1.294306
H -2.719425 1.257728 -0.890413
H -3.623967 0.400959 0.366161
H -2.017049 -1.457827 -0.046332
H -0.772478 1.108437 0.589416
H -1.444458 0.004385 1.790461
H 0.972764 -0.263234 1.707454
H 0.221744 -1.736032 1.090568
H 0.519177 -0.681197 -1.135827
H 3.055315 -0.942804 0.33376
H 2.834417 -1.119241 -1.406269
H 2.182246 -2.346576 -0.300895
O 1.560382 2.299699 0.021116
H 2.046339 2.743246 -0.678285
H 1.480754 1.359092 -0.258371

