23
3569.1538 N[C@@]12C=C[C@H]3N[C@@H]1[C@@H]2[C@@H]3O.O
N 2.769595 1.246969 0.277886
C 1.662322 0.344077 0.128467
C 1.85838 -1.121963 0.09625
C 0.77372 -1.896873 -0.011063
C -0.528963 -1.147142 -0.084854
N -0.619663 -0.223352 1.093079
C 0.342479 0.805595 0.808357
C 0.486252 0.902308 -0.672607
C -0.442565 -0.142016 -1.253957
O -1.746465 0.376117 -1.515718
H 3.401881 1.201499 -0.511649
H 3.298007 1.053877 1.119196
H 2.860486 -1.515439 0.210593
H 0.80551 -2.976933 -0.006006
H -1.411575 -1.776957 -0.14458
H -0.397794 -0.725725 1.946699
H 0.386944 1.657169 1.469244
H 0.635214 1.845828 -1.176688
H -0.043216 -0.627755 -2.147322
H -1.667899 1.182339 -2.033794
O -3.472894 0.411356 1.058279
H -2.512325 0.289233 1.172009
H -3.559635 0.463841 0.101481

