13
3488.5109 O[C@@H](C#N)C(F)(F)F.O
O 0.782389 -0.350659 1.485259
C -0.113068 0.50626 0.853115
C 0.541746 1.618582 0.135533
N 1.074221 2.476666 -0.411055
C -1.049939 -0.252896 -0.112916
F -1.934815 0.578923 -0.683463
F -0.354485 -0.859369 -1.101128
F -1.727838 -1.199087 0.545399
H 1.44299 -0.676263 0.839458
H -0.764851 0.933035 1.618434
O 2.513414 -1.182505 -0.488463
H 2.029607 -1.49893 -1.258173
H 3.288089 -1.745066 -0.398367

