17
3603.2502 O=C1CCCC1.O
O 1.048988 1.29128 0.006106
C 0.051374 0.603546 0.006663
C -1.371367 1.124998 -0.124883
C -2.26204 -0.075713 0.217071
C -1.427474 -1.292842 -0.231439
C 0.0108 -0.909857 0.135452
H -1.518205 2.014511 0.485328
H -1.499455 1.426478 -1.169599
H -3.23909 -0.033764 -0.26101
H -2.427457 -0.119564 1.295979
H -1.753845 -2.221507 0.233055
H -1.513153 -1.421072 -1.313001
H 0.225199 -1.138933 1.184635
H 0.800222 -1.376668 -0.450169
O 3.22521 -0.529319 0.00072
H 2.618942 0.231721 0.019603
H 4.105495 -0.15768 -0.096619

