31
3637.6561 CCCCC(=O)CCCC.O
C -4.147546 -0.208818 -0.118726
C -2.762384 -0.817669 -0.322268
C -1.88544 -0.704532 0.926656
C -0.483468 -1.273523 0.735569
C 0.426652 -0.481211 -0.179037
O 0.175343 0.653909 -0.532528
C 1.679238 -1.193961 -0.655744
C 2.840791 -0.282346 -1.058619
C 3.721852 0.156982 0.116392
C 2.99261 0.952239 1.199744
H -4.765499 -0.323939 -1.010344
H -4.061818 0.856165 0.097096
H -4.669606 -0.68854 0.712653
H -2.853731 -1.873292 -0.599673
H -2.269198 -0.315375 -1.156662
H -1.81687 0.340795 1.23021
H -2.366767 -1.235998 1.751886
H 0.049127 -1.331872 1.692713
H -0.519442 -2.304808 0.369027
H 1.988683 -1.924915 0.096105
H 1.344617 -1.784905 -1.516664
H 2.43403 0.594466 -1.565521
H 3.46366 -0.807642 -1.785005
H 4.183932 -0.728105 0.565675
H 4.543578 0.759934 -0.277689
H 2.234675 0.34983 1.704219
H 2.487365 1.821414 0.777938
H 3.689254 1.297574 1.964455
O -1.982997 2.494519 -0.21657
H -1.229469 1.893302 -0.33819
H -1.699116 3.335515 -0.583246

