16
3705.5512 CON(C)C=O.O
C 1.003904 1.643502 0.765068
O 0.570896 0.755419 -0.27823
N -0.720072 0.266836 -0.016529
C -1.771054 0.946898 -0.743172
C -0.789845 -1.043713 0.374554
O -1.820282 -1.681104 0.415273
H 0.325184 2.49304 0.851847
H 1.067729 1.11391 1.715809
H 1.991426 1.984079 0.462577
H -1.588026 0.90274 -1.818538
H -1.831484 1.987141 -0.427107
H -2.703828 0.440295 -0.51038
H 0.194524 -1.432544 0.675089
O 2.735162 -1.142285 -0.324665
H 2.0179 -0.539887 -0.566925
H 3.022833 -1.552995 -1.144391

