16
3777.1968 OCC#CC#CC(F)(F)F.O
O -4.389593 -0.310794 0.649395
C -3.672004 -1.123797 -0.257009
C -2.22422 -0.914284 -0.199221
C -1.037214 -0.693645 -0.147008
C 0.299219 -0.453043 -0.084484
C 1.481769 -0.230512 -0.029926
C 2.910763 0.038142 0.035849
F 3.288236 0.408238 1.276672
F 3.267456 1.032724 -0.803692
F 3.635124 -1.048155 -0.298484
H -4.176685 0.61591 0.448777
H -4.00148 -0.971088 -1.292849
H -3.891461 -2.161834 0.00091
O -3.197263 2.114107 -0.227681
H -2.277032 1.830058 -0.183643
H -3.225715 2.988027 0.173416

