23
3743.1992 N#CCNCCNCC#N.O
N 5.173215 0.071117 1.009282
C 4.241585 0.172559 0.34423
C 3.063729 0.272293 -0.518213
N 1.887272 -0.297944 0.124759
C 0.712881 -0.286003 -0.742423
C -0.507472 -0.792824 0.012714
N -1.661407 -0.849635 -0.884466
C -2.894406 -1.263196 -0.239852
C -3.372548 -0.303204 0.781718
N -3.664454 0.530345 1.519924
H 3.315375 -0.195268 -1.483359
H 2.876355 1.329869 -0.720094
H 2.088467 -1.240741 0.435857
H 0.849086 -0.880364 -1.65788
H 0.529279 0.747027 -1.048785
H -0.671239 -0.14776 0.884754
H -0.319041 -1.804772 0.385491
H -1.797222 0.063496 -1.305285
H -3.680951 -1.377308 -0.986737
H -2.756568 -2.235838 0.235752
O -1.937197 2.198572 -0.550593
H -2.480874 2.05578 0.235425
H -2.060086 3.122358 -0.785925

