22
3656.1794 O[C@@H]1[C@H]2Cn3cccc3[C@H]12.O
O 3.00522 0.171072 0.018825
C 2.09752 -0.730595 0.508412
C 0.959341 -1.160683 -0.40975
C -0.355626 -1.894279 -0.6202
N -1.250551 -0.750819 -0.243739
C -2.536104 -0.364273 -0.483247
C -2.73762 0.8314 0.176661
C -1.531235 1.17146 0.86043
C -0.618034 0.180169 0.579785
C 0.672148 -0.448447 0.957231
H 2.53419 0.947271 -0.336906
H 2.584128 -1.437658 1.168043
H 0.972785 -0.384354 -1.173414
H -0.516528 -2.740821 0.04831
H -0.547577 -2.192867 -1.64938
H -3.198836 -0.933662 -1.111231
H -3.648988 1.405131 0.164031
H -1.371199 2.02204 1.501135
H 0.472131 -1.207817 1.716194
O 1.274658 2.275509 -0.765028
H 1.133997 2.693068 -1.619238
H 0.398384 2.004234 -0.447691

